[TITLE]
;;Project Title/Notes
City of Ann Arbor Storm Water Model
10% AEP 12-Hour Design Storm (SCS/Alternating Block Distribution)
Developed in InfoSWMM w/EPA SWMM 5.0.022 version
Last Updated 1/3/2015 by CDM Smith Inc

[OPTIONS]
;;Option             Value
FLOW_UNITS           CFS
INFILTRATION         GREEN_AMPT
FLOW_ROUTING         DYNWAVE
LINK_OFFSETS         DEPTH
MIN_SLOPE            0
ALLOW_PONDING        YES
SKIP_STEADY_STATE    NO

IGNORE_SNOWMELT      YES
IGNORE_GROUNDWATER   YES
IGNORE_QUALITY       NO
START_DATE           07/01/2014
START_TIME           00:00:00
REPORT_START_DATE    07/01/2014
REPORT_START_TIME    00:00:00
END_DATE             07/04/2014
END_TIME             00:00:00
SWEEP_START          01/01
SWEEP_END            12/31
DRY_DAYS             5.000000
REPORT_STEP          00:01:00
WET_STEP             00:01:00
DRY_STEP             00:01:00
ROUTING_STEP         00:00:05 
RULE_STEP            00:00:00

INERTIAL_DAMPING     NONE
NORMAL_FLOW_LIMITED  SLOPE
FORCE_MAIN_EQUATION  H-W
VARIABLE_STEP        0.75
LENGTHENING_STEP     5
MIN_SURFAREA         0
MAX_TRIALS           8
HEAD_TOLERANCE       0
SYS_FLOW_TOL         5
LAT_FLOW_TOL         5
MINIMUM_STEP         0.5
THREADS              1

[EVAPORATION]
;;Data Source    Parameters
;;-------------- ----------------
CONSTANT         0.000000
DRY_ONLY         NO

[RAINGAGES]
;;Name           Format    Interval SCF      Source    
;;-------------- --------- ------ ------ ----------
R7995            VOLUME    0.083333 1.000000 TIMESERIES DESIGN_10YR12HR_ALT
R8126            VOLUME    0.083333 1.000000 TIMESERIES DESIGN_10YR12HR_ALT
R8258            VOLUME    0.083333 1.000000 TIMESERIES DESIGN_10YR12HR_ALT
R8511            VOLUME    0.083333 1.000000 TIMESERIES DESIGN_10YR12HR_ALT
R8512            VOLUME    0.083333 1.000000 TIMESERIES DESIGN_10YR12HR_ALT
R8513            VOLUME    0.083333 1.000000 TIMESERIES DESIGN_10YR12HR_ALT
R8642            VOLUME    0.083333 1.000000 TIMESERIES DESIGN_10YR12HR_ALT
R8643            VOLUME    0.083333 1.000000 TIMESERIES DESIGN_10YR12HR_ALT
R8645            VOLUME    0.083333 1.000000 TIMESERIES DESIGN_10YR12HR_ALT
R8646            VOLUME    0.083333 1.000000 TIMESERIES DESIGN_10YR12HR_ALT
R8772            VOLUME    0.083333 1.000000 TIMESERIES DESIGN_10YR12HR_ALT
R8773            VOLUME    0.083333 1.000000 TIMESERIES DESIGN_10YR12HR_ALT
R8774            VOLUME    0.083333 1.000000 TIMESERIES DESIGN_10YR12HR_ALT
R8775            VOLUME    0.083333 1.000000 TIMESERIES DESIGN_10YR12HR_ALT
R8776            VOLUME    0.083333 1.000000 TIMESERIES DESIGN_10YR12HR_ALT
R8901            VOLUME    0.083333 1.000000 TIMESERIES DESIGN_10YR12HR_ALT
R8902            VOLUME    0.083333 1.000000 TIMESERIES DESIGN_10YR12HR_ALT
R8903            VOLUME    0.083333 1.000000 TIMESERIES DESIGN_10YR12HR_ALT
R8904            VOLUME    0.083333 1.000000 TIMESERIES DESIGN_10YR12HR_ALT
R8905            VOLUME    0.083333 1.000000 TIMESERIES DESIGN_10YR12HR_ALT
R8906            VOLUME    0.083333 1.000000 TIMESERIES DESIGN_10YR12HR_ALT
R9031            VOLUME    0.083333 1.000000 TIMESERIES DESIGN_10YR12HR_ALT
R9032            VOLUME    0.083333 1.000000 TIMESERIES DESIGN_10YR12HR_ALT
R9033            VOLUME    0.083333 1.000000 TIMESERIES DESIGN_10YR12HR_ALT
R9034            VOLUME    0.083333 1.000000 TIMESERIES DESIGN_10YR12HR_ALT
R9035            VOLUME    0.083333 1.000000 TIMESERIES DESIGN_10YR12HR_ALT
R9036            VOLUME    0.083333 1.000000 TIMESERIES DESIGN_10YR12HR_ALT
R9037            VOLUME    0.083333 1.000000 TIMESERIES DESIGN_10YR12HR_ALT
R9162            VOLUME    0.083333 1.000000 TIMESERIES DESIGN_10YR12HR_ALT
R9163            VOLUME    0.083333 1.000000 TIMESERIES DESIGN_10YR12HR_ALT
R9164            VOLUME    0.083333 1.000000 TIMESERIES DESIGN_10YR12HR_ALT
R9165            VOLUME    0.083333 1.000000 TIMESERIES DESIGN_10YR12HR_ALT
R9166            VOLUME    0.083333 1.000000 TIMESERIES DESIGN_10YR12HR_ALT
R9167            VOLUME    0.083333 1.000000 TIMESERIES DESIGN_10YR12HR_ALT
R9168            VOLUME    0.083333 1.000000 TIMESERIES DESIGN_10YR12HR_ALT
R9294            VOLUME    0.083333 1.000000 TIMESERIES DESIGN_10YR12HR_ALT
R9295            VOLUME    0.083333 1.000000 TIMESERIES DESIGN_10YR12HR_ALT
R9296            VOLUME    0.083333 1.000000 TIMESERIES DESIGN_10YR12HR_ALT
R9297            VOLUME    0.083333 1.000000 TIMESERIES DESIGN_10YR12HR_ALT
R9425            VOLUME    0.083333 1.000000 TIMESERIES DESIGN_10YR12HR_ALT
R9426            VOLUME    0.083333 1.000000 TIMESERIES DESIGN_10YR12HR_ALT
R9427            VOLUME    0.083333 1.000000 TIMESERIES DESIGN_10YR12HR_ALT
R9556            VOLUME    0.083333 1.000000 TIMESERIES DESIGN_10YR12HR_ALT

[SUBCATCHMENTS]
;;Name           Rain Gage        Outlet           Area     %Imperv  Width    %Slope   CurbLen  SnowPack        
;;-------------- ---------------- ---------------- -------- -------- -------- -------- -------- ----------------
10               R9296            93-50401         5.330000 61.000000 2322.000000 2.580000 0.000000                 
100              R9296            92-51411         8.630000 45.000000 2506.000000 1.330000 0.000000                 
101              R9294            91-50813         9.730000 29.000000 4238.000000 3.560000 0.000000                 
102              R9164            93-90357         2.840000 56.000000 1237.000000 2.140000 0.000000                 
103              R9164            93-50225         5.610000 41.000000 2444.000000 3.960000 0.000000                 
104              R9165            93-49865         6.810000 65.000000 2966.000000 2.890000 0.000000                 
106              R9166            92-51414         16.950000 39.000000 4922.000000 1.140000 0.000000                 
;green roof
108              R9167            93-50041         2.570000 45.000000 1119.000000 2.560000 0.000000                 
109              R9166            93-50402         14.980000 67.000000 4350.000000 1.650000 0.000000                 
11               R9425            91-51122         15.620000 33.000000 4536.000000 1.690000 0.000000                 
110              R9295            92-63078         6.850000 77.000000 1989.000000 1.530000 0.000000                 
111              R9165            92-51795         14.430000 57.000000 4190.000000 2.620000 0.000000                 
112              R9167            88-55471         16.120000 52.000000 7022.000000 2.650000 0.000000                 
113              R9166            97-50045         16.790000 38.000000 7314.000000 1.940000 0.000000                 
115              R9164            88-56349         10.310000 38.000000 898.000000 2.670000 0.000000                 
;open
118              R9166            93-80312         7.520000 19.000000 655.000000 1.590000 0.000000                 
119              R9166            92-51600         5.880000 49.000000 2561.000000 1.380000 0.000000                 
12               R9425            93-50018         5.910000 39.000000 1716.000000 1.490000 0.000000                 
120              R9164            88-56347         6.690000 52.000000 2914.000000 2.520000 0.000000                 
121              R9165            93-50102         2.070000 71.000000 601.000000 3.440000 0.000000                 
124              R9165            93-80314         2.650000 32.000000 577.000000 1.440000 0.000000                 
125              R9166            92-51432         8.730000 42.000000 2535.000000 1.110000 0.000000                 
126              R9165            93-50104         12.760000 66.000000 3705.000000 2.320000 0.000000                 
13               R9295            93-50403         6.040000 25.000000 1316.000000 0.790000 0.000000                 
130              R9165            93-50110         6.500000 57.000000 2831.000000 4.200000 0.000000                 
131              R9165            92-53310         3.630000 70.000000 1054.000000 2.220000 0.000000                 
132              R9167            93-49994         2.160000 73.000000 941.000000 1.480000 0.000000                 
133              R9165            93-50101         13.610000 76.000000 3952.000000 3.040000 0.000000                 
134              R9163            93-50227         2.180000 75.000000 950.000000 2.350000 0.000000                 
136              R9165            93-80324         1.830000 70.000000 531.000000 2.980000 0.000000                 
;channel-wood
137              R9164            97-50311         9.830000 4.000000 4282.000000 5.310000 0.000000                 
;channel
1382             R9167            93-50404         25.810000 32.000000 5000.000000 2.990000 0.000000                 
1385             R9165            92-51616         1.700000 55.000000 741.000000 2.680000 0.000000                 
1386             R9165            93-80309         9.310000 79.000000 4055.000000 3.250000 0.000000                 
1387             R9164            93-50089         6.900000 62.000000 3006.000000 4.500000 0.000000                 
1388             R9164            92-52205         6.410000 56.000000 2792.000000 3.080000 0.000000                 
;channel-wood
1389             R9164            97-50433         19.050000 6.000000 3400.000000 3.240000 0.000000                 
1390             R9165            91-50952         2.430000 13.000000 1058.000000 5.230000 0.000000                 
1391             R9034            93-90355         2.920000 18.000000 1272.000000 4.650000 0.000000                 
1392             R9036            88-55466         3.670000 54.000000 1599.000000 3.130000 0.000000                 
1393             R9036            92-50546         7.830000 44.000000 3411.000000 1.570000 0.000000                 
1394             R9035            93-80309         1.630000 0.000000 473.000000 1.960000 0.000000                 
14               R9427            93-49992         15.020000 23.000000 6543.000000 3.540000 0.000000                 
140              R9167            92-51372         11.190000 44.000000 4874.000000 2.090000 0.000000                 
;detention
141              R9426            AIRPORT1         56.420000 46.000000 24576.000000 2.020000 0.000000                 
142              R9295            91-51215         13.550000 65.000000 5902.000000 1.340000 0.000000                 
143              R9167            93-49996         2.860000 25.000000 623.000000 1.270000 0.000000                 
1436             R9165            97-50299         3.430000 97.000000 996.000000 0.940000 0.000000                 
146              R9166            92-51593         22.770000 45.000000 9919.000000 2.160000 0.000000                 
;wood
1461             R9167            97-50253         35.890000 1.000000 3119.000000 1.530000 0.000000                 
1462             R9167            93-49759         19.680000 25.000000 5715.000000 2.180000 0.000000                 
1463             R8905            92-61941         13.900000 61.000000 6055.000000 0.500000 0.000000                 
1466             R9166            93-80320         4.740000 53.000000 1376.000000 3.750000 0.000000                 
1467             R9295            93-50303         1.180000 57.000000 514.000000 2.480000 0.000000                 
1468             R9295            93-49990         2.280000 63.000000 993.000000 1.600000 0.000000                 
1469             R9296            93-50408         17.100000 42.000000 7449.000000 2.210000 0.000000                 
1470             R9296            93-49968         1.370000 44.000000 597.000000 1.330000 0.000000                 
1472             R9294            93-49919         3.210000 64.000000 1398.000000 2.620000 0.000000                 
1473             R9164            93-90349         19.610000 61.000000 8542.000000 3.030000 0.000000                 
1474             R9164            97-50314         1.390000 20.000000 605.000000 3.820000 0.000000                 
1475             R9164            93-90349         1.300000 36.000000 566.000000 1.990000 0.000000                 
1476             R9035            91-51163         8.060000 45.000000 3511.000000 4.750000 0.000000                 
1477             R9035            93-50331         3.700000 82.000000 1074.000000 1.420000 0.000000                 
1478             R9035            92-51751         5.470000 77.000000 1588.000000 0.880000 0.000000                 
;gravel
1479             R9035            91-50989         13.440000 51.000000 1171.000000 3.830000 0.000000                 
148              R9167            92-51354         16.560000 49.000000 7213.000000 1.700000 0.000000                 
1480             R9167            93-49890         1.810000 60.000000 788.000000 1.720000 0.000000                 
1481             R9166            88-91550         7.050000 68.000000 2047.000000 3.720000 0.000000                 
1482             R9166            93-50114         1.420000 46.000000 412.000000 3.290000 0.000000                 
1483             R9166            93-50006         1.620000 68.000000 470.000000 1.210000 0.000000                 
1484             R9165            93-49976         1.770000 74.000000 514.000000 1.910000 0.000000                 
1485             R9165            93-50111         4.170000 81.000000 1816.000000 1.580000 0.000000                 
1486             R9165            93-49884         3.310000 86.000000 961.000000 1.870000 0.000000                 
;channel
1487             R9166            97-50305         5.230000 18.000000 2278.000000 6.100000 0.000000                 
1488             R9165            93-49911         2.800000 52.000000 813.000000 3.510000 0.000000                 
1489             R9295            92-53210         4.010000 80.000000 1164.000000 2.140000 0.000000                 
149              R9165            97-50298         8.000000 11.000000 2323.000000 3.560000 0.000000                 
1490             R9165            92-53315         2.900000 88.000000 842.000000 2.050000 0.000000                 
1491             R9165            92-51792         7.380000 80.000000 2143.000000 1.300000 0.000000                 
1492             R9165            92-53133         4.970000 76.000000 1443.000000 1.100000 0.000000                 
1493             R9165            88-54154         1.670000 76.000000 727.000000 1.840000 0.000000                 
1494             R9165            88-54195         4.850000 63.000000 1408.000000 1.460000 0.000000                 
1495             R9165            92-53230         5.020000 55.000000 2187.000000 2.200000 0.000000                 
1496             R9164            92-53126         10.700000 62.000000 3107.000000 2.240000 0.000000                 
1497             R9164            92-52162         14.970000 86.000000 6521.000000 1.360000 0.000000                 
1498             R9164            92-53149         21.050000 91.000000 9169.000000 1.240000 0.000000                 
1499             R9294            92-53114         25.240000 95.000000 10994.000000 1.040000 0.000000                 
15               R9296            93-49972         2.430000 69.000000 1058.000000 0.960000 0.000000                 
150              R9164            92-53297         4.840000 43.000000 2108.000000 2.530000 0.000000                 
;140
1500             R9033            92-63185         4.410000 46.000000 1921.000000 2.350000 0.000000                 
;1000
1501             R9034            91-51044         2.060000 23.000000 897.000000 2.610000 0.000000                 
1502             R8905            92-51641         11.260000 43.000000 4905.000000 1.070000 0.000000                 
1503             R9294            93-50081         1.340000 74.000000 584.000000 1.300000 0.000000                 
1504             R9296            93-50021         3.390000 88.000000 1477.000000 0.840000 0.000000                 
1505             R9296            93-50282         1.940000 67.000000 845.000000 1.240000 0.000000                 
1506             R9163            93-90358         10.140000 51.000000 4417.000000 3.260000 0.000000                 
151              R9165            93-80315         7.790000 56.000000 2262.000000 2.590000 0.000000                 
1510             R8905            92-52945         13.200000 85.000000 3833.000000 1.360000 0.000000                 
1511             R9035            92-63202         6.400000 55.000000 2788.000000 1.020000 0.000000                 
;open
1512             R9035            91-51047         18.310000 4.000000 1595.000000 3.600000 0.000000                 
1513             R9035            93-90005         17.210000 46.000000 7497.000000 3.050000 0.000000                 
1514             R9035            92-52807         3.950000 34.000000 1147.000000 5.350000 0.000000                 
1515             R9035            92-52797         3.580000 33.000000 1559.000000 4.910000 0.000000                 
;channel
1516             R9035            97-90680         31.820000 7.000000 3200.000000 3.170000 0.000000                 
1517             R9167            92-63194         13.620000 37.000000 5933.000000 1.900000 0.000000                 
1518             R9296            92-51111         13.940000 43.000000 6072.000000 2.190000 0.000000                 
152              R9166            92-51578         2.410000 63.000000 1050.000000 2.350000 0.000000                 
153              R9166            92-51423         11.120000 43.000000 3229.000000 1.170000 0.000000                 
154              R9167            92-51196         13.680000 29.000000 2979.000000 1.140000 0.000000                 
155              R9165            93-50109         4.190000 67.000000 1825.000000 3.580000 0.000000                 
156              R9165            92-51692         2.000000 67.000000 871.000000 2.690000 0.000000                 
1563             R8776            92-62543         14.480000 47.000000 6307.000000 3.440000 0.000000                 
1564             R8776            92-58319         4.210000 40.000000 1834.000000 5.070000 0.000000                 
1565             R9037            92-50633         3.730000 39.000000 1083.000000 2.980000 0.000000                 
1566             R9036            92-58352         7.530000 54.000000 3280.000000 1.910000 0.000000                 
1567             R8906            92-50730         5.390000 47.000000 2348.000000 3.020000 0.000000                 
1568             R8906            92-63053         6.770000 49.000000 2949.000000 1.730000 0.000000                 
1569             R9036            92-58980         4.390000 52.000000 1912.000000 2.860000 0.000000                 
157              R9164            93-49736         4.380000 49.000000 1908.000000 2.260000 0.000000                 
1570             R9164            91-50821         7.860000 32.000000 3424.000000 2.910000 0.000000                 
1572             R9163            93-49839         8.040000 59.000000 3502.000000 2.710000 0.000000                 
1573             R9164            97-50316         5.720000 48.000000 1661.000000 3.770000 0.000000                 
158              R9165            93-50097         7.820000 68.000000 3406.000000 2.760000 0.000000                 
159              R9165            93-50098         3.670000 60.000000 1599.000000 2.620000 0.000000                 
16               R9426            97-50267         20.000000 74.000000 8712.000000 1.170000 0.000000                 
160              R9166            92-51443         7.650000 35.000000 1666.000000 1.340000 0.000000                 
161              R9165            91-51169         3.350000 25.000000 1459.000000 3.720000 0.000000                 
1612             R9295            97-50282         2.690000 13.000000 1172.000000 7.590000 0.000000                 
1613             R9295            91-51101         22.930000 59.000000 9988.000000 2.120000 0.000000                 
1614             R9294            91-50813         24.730000 46.000000 10772.000000 2.450000 0.000000                 
1615             R9296            92-63141         25.060000 44.000000 10916.000000 2.830000 0.000000                 
1616             R9296            97-50274         2.310000 16.000000 1006.000000 8.430000 0.000000                 
;wood
1617             R9297            92-62746         17.540000 9.000000 1528.000000 2.300000 0.000000                 
;wood
1618             R9167            91-51021         5.110000 19.000000 445.000000 1.150000 0.000000                 
1619             R9036            92-50398         7.500000 67.000000 3267.000000 2.100000 0.000000                 
162              R9163            91-51211         80.140000 29.000000 34909.000000 4.060000 0.000000                 
;gravel
1620             R9167            209              16.590000 23.000000 1445.000000 2.680000 0.000000                 
;detention
163              R9162            WATERSRD1        39.290000 67.000000 17115.000000 2.840000 0.000000                 
;5000
1632             R9034            93-50312         1.590000 72.000000 693.000000 3.210000 0.000000                 
1633             R9034            91-50976         2.540000 44.000000 1106.000000 3.900000 0.000000                 
;92000
1634             R9034            92-51929         0.350000 93.000000 152.000000 1.680000 0.000000                 
;200
1635             R9034            97-50324         4.010000 4.000000 1747.000000 2.730000 0.000000                 
1636             R9034            88-56158         3.280000 55.000000 1429.000000 3.090000 0.000000                 
;9200
1637             R9033            97-50324         0.280000 52.000000 122.000000 3.070000 0.000000                 
;9130
1638             R9034            92-51929         0.660000 74.000000 287.000000 1.900000 0.000000                 
;channel-wood
1639             R9034            91-50811         3.580000 11.000000 1559.000000 4.570000 0.000000                 
164              R9165            88-51440         6.580000 68.000000 2866.000000 3.780000 0.000000                 
;pond
1640             R9033            97-50322         10.470000 40.000000 4561.000000 4.440000 0.000000                 
1641             R9033            92-52122         1.920000 44.000000 836.000000 2.570000 0.000000                 
1642             R9033            92-52064         6.150000 40.000000 2679.000000 3.350000 0.000000                 
1643             R9033            92-52139         4.880000 41.000000 2126.000000 3.500000 0.000000                 
1644             R9033            88-52027         3.250000 39.000000 1416.000000 3.200000 0.000000                 
1645             R9165            97-90679         8.780000 69.000000 3825.000000 2.560000 0.000000                 
1646             R9164            1649             4.250000 8.000000 1234.000000 3.100000 0.000000                 
;open
1647             R9034            91-90169         15.600000 18.000000 1359.000000 2.450000 0.000000                 
1648             R9164            92-52193         2.710000 45.000000 1180.000000 2.940000 0.000000                 
1649             R9164            97-50430         1.550000 63.000000 450.000000 2.200000 0.000000                 
165              R9163            92-52180         6.410000 43.000000 2792.000000 2.980000 0.000000                 
;channel-open
1650             R9163            97-50295         16.750000 15.000000 1459.000000 3.460000 0.000000                 
;wood
1651             R9032            97-50416         7.610000 23.000000 3315.000000 4.750000 0.000000                 
1652             R9032            91-51041         7.760000 21.000000 550.000000 4.410000 0.000000                 
1653             R8901            97-50296         6.620000 18.000000 2884.000000 3.080000 0.000000                 
166              R9164            93-90349         8.350000 46.000000 3637.000000 2.970000 0.000000                 
1661             R9035            88-53691         2.520000 48.000000 1098.000000 5.900000 0.000000                 
167              R9165            93-50112         10.480000 70.000000 3043.000000 2.660000 0.000000                 
;open
1675             R8905            88-56380         8.480000 12.000000 739.000000 2.990000 0.000000                 
;open
1678             R8905            92-52902         29.540000 3.000000 2574.000000 3.060000 0.000000                 
168              R9166            93-50115         5.500000 69.000000 1597.000000 0.890000 0.000000                 
1684             R9034            91-51165         17.120000 7.000000 7457.000000 2.050000 0.000000                 
;wood
1685             R9033            92-51178         15.060000 17.000000 2000.000000 2.250000 0.000000                 
;wood
1686             R9033            92-52092         12.980000 5.000000 1300.000000 1.890000 0.000000                 
1687             R9036            92-51208         12.800000 80.000000 3717.000000 2.190000 0.000000                 
1689             R9296            93-80335         15.740000 30.000000 3428.000000 0.930000 0.000000                 
169              R9163            97-50293         18.330000 81.000000 7984.000000 2.900000 0.000000                 
1690             R9296            93-50022         12.750000 52.000000 5554.000000 1.130000 0.000000                 
1691             R9296            93-80336         5.900000 30.000000 1713.000000 2.180000 0.000000                 
17               R9425            92-51770         8.300000 60.000000 2410.000000 0.680000 0.000000                 
170              R9165            88-51441         7.290000 55.000000 3175.000000 4.400000 0.000000                 
1705             R9167            91-50522         6.200000 55.000000 1800.000000 1.290000 0.000000                 
;detention
1706             R9162            WATERSRD2        81.690000 33.000000 35584.000000 2.590000 0.000000                 
1707             R9426            93-49991         9.980000 51.000000 4347.000000 1.740000 0.000000                 
1708             R9556            AIRPORT2         76.520000 46.000000 33332.000000 2.130000 0.000000                 
1709             R9426            VARSITYDR1       63.530000 43.000000 27673.000000 2.930000 0.000000                 
171              R9163            92-52174         3.120000 74.000000 1359.000000 2.430000 0.000000                 
1717             R8905            92-52932N2       3.540000 86.000000 1028.000000 2.210000 0.000000                 
173              R9166            88-56227         14.010000 17.000000 4068.000000 2.350000 0.000000                 
1735             R9163            92-52211         10.350000 62.000000 4508.000000 2.650000 0.000000                 
1736             R9164            92-52200         14.990000 55.000000 6530.000000 3.020000 0.000000                 
;detention
1737             R9032            91-51213_A       5.700000 56.000000 1655.000000 1.630000 0.000000                 
;detention
1738             R9032            91-51213_C       12.150000 73.000000 3528.000000 2.650000 0.000000                 
;no restriction
1739             R9032            91-51213_E       6.150000 55.000000 2679.000000 3.470000 0.000000                 
;no restriction
1740             R9032            91-51213_F       11.830000 58.000000 3435.000000 2.230000 0.000000                 
;no restriction
1741             R9031            91-51213_F       34.200000 2.000000 2979.000000 2.230000 0.000000                 
;detention
1742             R9031            91-51213_D       4.630000 98.000000 2017.000000 2.530000 0.000000                 
1743             R9034            93-49796         3.160000 64.000000 1376.000000 2.710000 0.000000                 
1744             R9295            93-50407         4.230000 73.000000 1843.000000 1.400000 0.000000                 
1745             R9295            92-51812         8.170000 25.000000 1779.000000 0.780000 0.000000                 
1746             R9295            92-51772         3.730000 20.000000 812.000000 1.230000 0.000000                 
1747             R9295            88-56264         2.560000 63.000000 1115.000000 1.740000 0.000000                 
1748             R9295            92-51658         6.150000 50.000000 2679.000000 0.820000 0.000000                 
;library
1749             R9032            91-51213_B       3.170000 31.000000 1381.000000 1.660000 0.000000                 
175              R9164            93-50230         4.620000 43.000000 2012.000000 6.030000 0.000000                 
1775             R8902            92-52416         4.580000 49.000000 1995.000000 2.040000 0.000000                 
1776             R9163            88-54082         1.310000 49.000000 571.000000 3.490000 0.000000                 
1777             R9163            88-54075         1.290000 54.000000 562.000000 3.320000 0.000000                 
1778             R9163            88-56359         4.610000 66.000000 2008.000000 2.170000 0.000000                 
1779             R9164            88-56354         0.580000 64.000000 253.000000 2.100000 0.000000                 
1780             R9164            88-54063         2.330000 40.000000 1015.000000 3.140000 0.000000                 
1781             R9166            92-51222         15.420000 56.000000 6717.000000 2.800000 0.000000                 
1782             R9036            92-50547         12.410000 59.000000 5406.000000 1.970000 0.000000                 