[TITLE]
;;Project Title/Notes
Ellsworth Pond to Mary Beth Doyle Wetland Storm Water Model
Last Updated 6/11/2020

[OPTIONS]
;;Option             Value
FLOW_UNITS           CFS
INFILTRATION         GREEN_AMPT
FLOW_ROUTING         DYNWAVE
LINK_OFFSETS         DEPTH
MIN_SLOPE            0
ALLOW_PONDING        YES
SKIP_STEADY_STATE    NO

IGNORE_SNOWMELT      YES
IGNORE_GROUNDWATER   YES
IGNORE_QUALITY       NO
START_DATE           07/01/2014
START_TIME           00:00:00
REPORT_START_DATE    07/01/2014
REPORT_START_TIME    00:00:00
END_DATE             07/15/2014
END_TIME             00:00:00
SWEEP_START          01/01
SWEEP_END            12/31
DRY_DAYS             5.000000
REPORT_STEP          00:01:00
WET_STEP             00:01:00
DRY_STEP             00:01:00
ROUTING_STEP         0:00:05 
RULE_STEP            00:00:00

INERTIAL_DAMPING     NONE
NORMAL_FLOW_LIMITED  SLOPE
FORCE_MAIN_EQUATION  H-W
VARIABLE_STEP        0.75
LENGTHENING_STEP     5
MIN_SURFAREA         12.566
MAX_TRIALS           8
HEAD_TOLERANCE       0.005
SYS_FLOW_TOL         5
LAT_FLOW_TOL         5
MINIMUM_STEP         0.5
THREADS              2

[EVAPORATION]
;;Data Source    Parameters
;;-------------- ----------------
CONSTANT         0.000000
DRY_ONLY         NO

[RAINGAGES]
;;Name           Format    Interval SCF      Source    
;;-------------- --------- ------ ------ ----------
R9167            CUMULATIVE 0:15     1.0     TIMESERIES 5YR_12HR

[SUBCATCHMENTS]
;;Name           Rain Gage        Outlet           Area     %Imperv  Width    %Slope   CurbLen  SnowPack        
;;-------------- ---------------- ---------------- -------- -------- -------- -------- -------- ----------------
EllsworthSubcatch R9167            93-50408         1300     56       500      0.5      0                        
WetlandSubcatch  R9167            93-49759         310      51       50      0.75       0                        
BasinSubcatch    R9167            93-50404         310      38       50      2        0                        

[SUBAREAS]
;;Subcatchment   N-Imperv   N-Perv     S-Imperv   S-Perv     PctZero    RouteTo    PctRouted 
;;-------------- ---------- ---------- ---------- ---------- ---------- ---------- ----------
EllsworthSubcatch 0.01       0.1        0.05       0.05       25         OUTLET    
WetlandSubcatch  0.01       0.1        0.05       0.05       25         OUTLET    
BasinSubcatch    0.01       0.1        0.05       0.05       25         OUTLET    

[INFILTRATION]
;;Subcatchment   Suction    Ksat       IMD       
;;-------------- ---------- ---------- ----------
EllsworthSubcatch 3.0        0.5        4         
WetlandSubcatch  3.0        0.5        4         
BasinSubcatch    3.0        0.5        4         

[JUNCTIONS]
;;Name           Elevation  MaxDepth   InitDepth  SurDepth   Aponded   
;;-------------- ---------- ---------- ---------- ---------- ----------
;Close-To-Open Discharge Point
91-50754         807.400000 20.000000  0.700000   0.000000   5000.000000
;Close-To-Open Discharge Point
91-50846         805.640000 20.000000  0.000000   0.000000   5000.000000
;Close-To-Open Discharge Point
91-50871         808.3      20.000000  0.460000   0.000000   5000.000000
;Close-To-Open Discharge Point
91-51015         797.000000 20.000000  1.000000   0.000000   5000.000000
;Close-To-Open Discharge Point
91-51022         806.8      20.000000  0.000000   0.000000   5000.000000
;Close-To-Open Discharge Point
91-51023         802.730000 20.000000  0.000000   0.000000   5000.000000
;Close-To-Open Discharge Point
91-51024         808.060000 20.000000  0.040000   0.000000   5000.000000
;Open-To-Close Discharge Point
91-51075         805.700000 20.000000  0.000000   0.000000   5000.000000
;Open-To-Close Discharge Point
91-51076         806.7      20.000000  0.000000   0.000000   5000.000000
;Open-To-Close Discharge Point
91-51078         806.9      20.000000  0.000000   0.000000   5000.000000
;Open-To-Close Discharge Point
91-51079         808.160000 20.000000  0.000000   0.000000   5000.000000
91-51131         808.4      20.000000  0.200000   0.000000   5000.000000
;Open-To-Close Discharge Point
91-51203         807.600000 20.000000  0.500000   0.000000   5000.000000
;Open-To-Close Discharge Point
91-51204         803.450000 20.000000  0.000000   0.000000   5000.000000
;GradeChange
91-52015         796.000000 20.000000  0.000000   0.000000   5000.000000
;GradeChange
91-52018         793.000000 20.000000  1.700000   0.000000   5000.000000
;Junction
97-50127         803.280000 10.337000  0.000000   100.000000 5000.000000
;Junction
97-50257         799.550000 20.000000  0.450000   0.000000   5000.000000
;Junction
97-50259         799.180000 20.000000  0.820000   0.000000   5000.000000
;Junction
97-50262         806.550000 20.000000  0.000000   0.000000   5000.000000
;Junction
97-50264         808.200000 20.000000  0.000000   0.000000   5000.000000
97-50401         793.700000 20.000000  0.000000   0.000000   5000.000000
;Doyle Park outlet control (weir)
97-50402         796.000000 20.000000  2.000000   0.000000   5000.000000
;GradeChange
97-50404         804.210000 20.000000  0.000000   0.000000   5000.000000

[OUTFALLS]
;;Name           Elevation  Type       Stage Data       Gated    Route To        
;;-------------- ---------- ---------- ---------------- -------- ----------------
;Junction
97-50253         792.070000 FREE                        NO                       

[STORAGE]
;;Name           Elev.    MaxDepth   InitDepth  Shape      Curve Name/Params            N/A      Fevap    Psi      Ksat     IMD     
;;-------------- -------- ---------- ----------- ---------- ---------------------------- -------- --------          -------- --------
;Doyle Park
93-49759         797.000000 9.000000   0.000000   TABULAR    DOYLE_2                      0.0      1.000000
;Doyle Park (Pond adjacent to dam)
93-50404         796.000000 20.000000  0.000000   TABULAR    DOYLE_1                      0.0      1.000000
;Malletts Creek Retention Basin 2
93-50408         808.5    20.000000  0.000000   TABULAR    93-50408                     0.0      1.000000

[CONDUITS]
;;Name           From Node        To Node          Length     Roughness  InOffset   OutOffset  InitFlow   MaxFlow   
;;-------------- ---------------- ---------------- ---------- ---------- ---------- ---------- ---------- ----------
95-51631         91-51075         91-50846         141.410000 0.013000   0.000000   0.000000   0.000000   0.000000  
95-51634         91-51022         91-51076         59.000000  0.035000   0.000000   0.000000   0.000000   0.000000  
95-51635         91-51078         91-51022         70.060000  0.013000   0.000000   0.000000   0.000000   0.000000  
95-51757         97-50257         97-50259         745.000000 0.035000   0.000000   0.000000   0.000000   0.000000  
95-51758         91-51023         97-50257         855.030000 0.035000   0.000000   0.000000   0.000000   0.000000  
95-51759         97-50127         91-51023         49.190000  0.024000   0.000000   0.000000   0.000000   0.000000  
95-51760         91-50846         97-50404         38.290000  0.013000   0.000000   0.000000   0.000000   0.000000  
95-51774         91-50754         91-51078         375.000000 0.035000   0.000000   0.000000   0.000000   0.000000  
95-51775         91-51203         91-50754         57.330000  0.013000   0.000000   0.000000   0.000000   0.000000  
95-51776         91-51024         91-51203         789.900000 0.035000   0.000000   0.000000   0.000000   0.000000  
95-51777         91-51079         91-51024         54.060000  0.013000   0.000000   0.000000   0.000000   0.000000  
95-68131         91-51204         97-50127         22.000000  0.024000   0.000000   0.000000   0.000000   0.000000  
95-68287         91-51131         91-50871         12.000000  0.013000   0.000000   0.000000   0.000000   0.000000  
95-69044         91-50871         97-50264         123.840000 0.035000   0.000000   0.000000   0.000000   0.000000  
95-69048         91-51076         97-50262         407.480000 0.035000   0.000000   0.000000   0.000000   0.000000  
95-69050         97-50404         91-51204         551.270000 0.035000   0.000000   0.000000   0.000000   0.000000  
95-70180         97-50264         91-51079         97.260000  0.035000   0.000000   0.000000   0.000000   0.000000  
95-70277         97-50401         97-50253         434.000000 0.035000   0.000000   0.000000   0.000000   0.000000  
;dam overflow
95-70294         93-50404         97-50402         70.000000  0.035000   9.500000   2.000000   0.000000   0.000000  
;culvert outlet
95-70295         93-49759         91-51015         132.000000 0.013000   0.130000   0.000000   0.000000   0.000000  
;culvert under footbridge
95-70504         93-50404         93-49759         60.000000  0.013000   4.000000   0.110000   0.000000   0.000000  
95-70594         97-50262         91-51075         49.390000  0.035000   0.000000   0.000000   0.000000   0.000000  
95-70713         97-50259         93-50404         10.000000  0.035000   0.000000   3.000000   0.000000   0.000000  
95-70750         91-52015         91-52018         55.000000  0.013000   0.000000   0.000000   0.000000   0.000000  
O_95-70750       91-52015         91-52018         55.000000  0.030000   12.000000  13.000000  0.000000   0.000000  

[ORIFICES]
;;Name           From Node        To Node          Type         Offset     Qcoeff     Gated    CloseTime 
;;-------------- ---------------- ---------------- ------------ ---------- ---------- -------- ----------
95-70951         93-50408         91-51131         SIDE         0.25       0.65       NO       0         
95-70293         91-51015         97-50402         SIDE         0.0        0.65       NO       0         

[WEIRS]
;;Name           From Node        To Node          Type         CrestHt    Qcoeff     Gated    EndCon   EndCoeff   Surcharge  RoadWidth  RoadSurf   Coeff. Curve
;;-------------- ---------------- ---------------- ------------ ---------- ---------- -------- -------- ---------- ---------- ---------- ---------- ----------------
95-70277_2       91-52018         97-50401         TRANSVERSE   1.700000   3.300000   NO       0        0.000000   YES       
;Doyle Park outlet control (weir)
95-70750_2       97-50402         91-52015         TRANSVERSE   2.000000   3.300000   NO       0        0.000000   YES       

[XSECTIONS]
;;Link           Shape        Geom1            Geom2      Geom3      Geom4      Barrels    Culvert   
;;-------------- ------------ ---------------- ---------- ---------- ---------- ---------- ----------
95-51631         RECT_CLOSED  6.000000         16.000000  0.000000   0.000000   1          0         
95-51634         IRREGULAR    MAC17808         0          0          0          1                    
95-51635         RECT_CLOSED  5.000000         14.000000  0.000000   0.000000   1          0         
95-51757         IRREGULAR    MAC15455         0          0          0          1                    
95-51758         IRREGULAR    MAC16749         0          0          0          1                    
95-51759         ARCH         8.083000         13.417000  0.000000   0.000000   1          0         
95-51760         IRREGULAR    MAC17155         0          0          0          1                    
95-51774         IRREGULAR    MAC17968         0          0          0          1                    
95-51775         HORIZ_ELLIPSE 8.083000         12.750000  0.000000   0.000000   1          0         
95-51776         IRREGULAR    MAC18737         0          0          0          1                    
95-51777         CIRCULAR     8.000000         0.000000   0.000000   0.000000   1          0         
95-68131         ARCH         8.083000         13.417000  0.000000   0.000000   1          0         
95-68287         RECT_CLOSED  7.000000         10.000000  0.000000   0.000000   1          0         
95-69044         IRREGULAR    MAC19470         0          0          0          1                    
95-69048         IRREGULAR    MAC17286         0          0          0          1                    
95-69050         IRREGULAR    MAC16749         0          0          0          1                    
95-70180         IRREGULAR    MAC19285         0          0          0          1                    
95-70277         IRREGULAR    MAC14032         0          0          0          1                    
95-70294         RECT_OPEN    20.000000        209.000000 0.000000   0.000000   1          0         
95-70295         CIRCULAR     2.000000         0.000000   0.000000   0.000000   1          0         
95-70504         RECT_OPEN    20.000000        40.000000  0.000000   0.000000   1          0         
95-70594         IRREGULAR    MAC17286         0          0          0          1                    
95-70713         IRREGULAR    MAC15455         0          0          0          1                    
95-70750         CIRCULAR     7.500000         0.000000   0.000000   0.000000   3          0         
O_95-70750       RECT_OPEN    10.000000        70.000000  0.000000   0.000000   1          0         
95-70951         CIRCULAR     5                0          0          0
95-70293         CIRCULAR     2                0          0          0
95-70277_2       RECT_OPEN    20.000000        40.000000  0.000000   0.000000  
95-70750_2       RECT_OPEN    20.000000        53.000000  0.000000   0.000000  

[TRANSECTS]
;;Transect Data in HEC-2 format
;
;Mallets Creekshed: field
NC 0.060000 0.075000 0.035000
X1 MAC14032          33       28.360000 52.090000 0.0      0.0      0.000000 0.000000 0.000000
GR 20       0        11.31    0.1      10.31    1.53     9.31     3.6      8.31     5.6     
GR 7.31     7.7      6.31     9.7      5.31     11.74    4.31     13.8     2.93     15.44   
GR 1.96     17.07    0.97     18.93    0.51     21.46    0.45     28.36    0.5      32.97   
GR 0.06     40.61    0        47.49    0.46     52.09    0.54     54.56    0.62     58.13   
GR 0.95     64.36    2.58     69.65    3.31     72.53    4.31     73.54    5.31     80.64   
GR 6.31     86.53    7.31     91.53    8.31     96.53    9.31     100.53   10.31    104.53  
GR 11.31    108.53   12.31    112.53   20       113     
;
;Mallets Creekshed: field + contours
NC 0.060000 0.075000 0.035000
X1 MAC15455          15       100.000000 126.000000 0.0      0.0      0.000000 0.000000 0.000000
GR 20       0        10.32    0.1      8.32     74       6.32     84       4.32     94      
GR 0.92     100      1.12     102      0        103      0        104      0        126     
GR 4.32     144      6.32     151      8.32     158      10.32    165      20       165.1   
;
;Mallets Creekshed: field + contours
NC 0.040000 0.040000 0.035000
X1 MAC16749          19       35.360000 49.500000 0.0      0.0      0.000000 0.000000 0.000000
GR 20       0        9.06     0.1      7.06     8        4.41     18       2.84     23.96   
GR 1.86     28.33    1.62     33.01    1.72     35.36    0.08     37.26    0        42.72   
GR 0.19     48.41    1.8      49.5     2.27     52.69    3        56.75    3.67     58.52   
GR 5.06     73.72    7.06     146.87   9.06     166.12   20       167     
;
;Mallets Creekshed: field
NC 0.075000 0.075000 0.035000
X1 MAC17155          15       16.400000 35.600000 0.0      0.0      0.000000 0.000000 0.000000
GR 20       0        5.14     0.1      4.4      2.2      3.52     5.7      2.82     9.1     
GR 2.46     13.2     0.42     16.4     0.2      17       0        26.2     0.76     35.6    
GR 1.7      36.1     1.96     37.2     4.4      41       6.08     44.2     20       45      
;
;Mallets Creekshed: field
NC 0.075000 0.075000 0.035000
X1 MAC17286          14       15.200000 33.900000 0.0      0.0      0.000000 0.000000 0.000000
GR 20       0        4.76     0.1      3.81     3.2      2.17     7.7      1.34     12      
GR 0.39     15.2     0        25.2     0.13     33.9     1.05     34       1.36     36.6    
GR 1.97     38.6     2.88     41       5.61     45       20       45.1    
;
;Mallets Creekshed: field
NC 0.060000 0.075000 0.035000
X1 MAC17808          21       96.200000 110.100000 0.0      0.0      0.000000 0.000000 0.000000
GR 20       0        6.54     0.1      4.54     21.5     2.54     82.5     1.86     90      
GR 1.74     92       0.9      94       1.42     96.2     1.02     97       0.3      97.3    
GR 0        102      0.32     107.6    1.1      109.1    1.26     110.1    2.2      110.8   
GR 2.52     111.5    2.54     113      4.54     133      4.54     205      6.54     226     
GR 20       226.1   
;
;Mallets Creekshed: field
NC 0.075000 0.075000 0.035000
X1 MAC17968          15       7.700000 19.100000 0.0      0.0      0.000000 0.000000 0.000000
GR 20       0        5.64     0.1      4.73     1.7      0.79     3.9      0.45     7.7     
GR 0        12.2     1.28     19.1     2.33     19.9     3.52     23.7     3.92     27.3    
GR 5.08     30.7     5.48     35.7     5.66     50.7     5.66     57.7     20       58      
;
;Mallets Creekshed: field
NC 0.075000 0.075000 0.035000
X1 MAC18737          18       34.500000 44.500000 0.0      0.0      0.000000 0.000000 0.000000
GR 10.67    0        8.67     12       6.78     24       6.34     26.1     3.32     30.2    
GR 2.54     32       0.29     34.5     0        37.6     0.46     41.7     1.24     44.5    
GR 3        46.7     4.39     48.9     5.5      50.7     6.18     53.2     6.56     59      
GR 6.66     75       8.67     109      11       109.1   
;
;Mallets Creekshed: field
NC 0.075000 0.075000 0.035000
X1 MAC19285          13       18.680000 30.590000 0.0      0.0      0.000000 0.000000 0.000000
GR 20       0        7.95     0.1      0.34     18.68    0.12     21.39    0.18     21.41   
GR 0        27.52    0.46     30.59    1.72     31.99    2.96     33.36    3.82     35.03   
GR 5.15     37.23    6.52     39.94    20       40      
;
;Mallets Creekshed: field
NC 0.040000 0.040000 0.035000
X1 MAC19470          18       19.260000 51.210000 0.0      0.0      0.000000 0.000000 0.000000
GR 20       0        8.08     0.1      6.08     6        5.18     10       3.93     12.56   
GR 2.17     15.76    1.01     19.26    0.54     23.57    0        29.89    0.01     40.49   
GR 0.13     43.66    1.03     51.21    1.75     52.89    3.53     58.12    4.91     60.71   
GR 6.37     64.57    8.08     68       20       68.1    

[LOSSES]
;;Link           Kentry     Kexit      Kavg       Flap Gate  Seepage   
;;-------------- ---------- ---------- ---------- ---------- ----------
95-51631         0.200000   1.000000   0.000000   NO         0         
95-51634         0.000000   0.000000   0.000000   NO         0         
95-51635         0.200000   1.000000   0.000000   NO         0         
95-51757         0.000000   0.000000   0.000000   NO         0         
95-51758         0.000000   0.000000   0.000000   NO         0         
95-51759         0.000000   1.000000   0.000000   NO         0         
95-51760         0.000000   0.000000   0.000000   NO         0         
95-51774         0.000000   0.000000   0.000000   NO         0         
95-51775         0.200000   1.000000   0.000000   NO         0         
95-51776         0.000000   0.000000   0.000000   NO         0         
95-51777         0.200000   1.000000   0.000000   NO         0         
95-68131         0.200000   0.000000   0.000000   NO         0         
95-68287         0.000000   1.000000   0.000000   NO         0         
95-69044         0.000000   0.000000   0.000000   NO         0         
95-69048         0.000000   0.000000   0.000000   NO         0         
95-69050         0.000000   0.000000   0.000000   NO         0         
95-70180         0.000000   0.000000   0.000000   NO         0         
95-70277         0.000000   0.000000   0.000000   NO         0         
95-70294         0.000000   0.000000   0.000000   NO         0         
95-70295         0.200000   1.000000   0.000000   YES        0         
95-70504         0.000000   0.000000   0.000000   YES        0         
95-70594         0.000000   0.000000   0.000000   NO         0         
95-70713         0.000000   0.000000   0.000000   NO         0         
95-70750         0.200000   1.000000   0.000000   NO         0         
O_95-70750       0.000000   0.000000   0.000000   NO         0         

[POLLUTANTS]
;;Name           Units  Crain      Cgw        Crdii      Kdecay     SnowOnly   Co-Pollutant     Co-Frac    Cdwf       Cinit     
;;-------------- ------ ---------- ---------- ---------- ---------- ---------- ---------------- ---------- ---------- ----------
TSS              MG/L   0.0        0.0        0.0        0.0        NO         *                0.0        0.0        0.0       

[LANDUSES]
;;               Sweeping   Fraction   Last      
;;Name           Interval   Available  Swept     
;;-------------- ---------- ---------- ----------
General          0          0          0         

[COVERAGES]
;;Subcatchment   Land Use         Percent   
;;-------------- ---------------- ----------
EllsworthSubcatch General          100       
WetlandSubcatch  General          100       
BasinSubcatch    General          100       

[LOADINGS]
;;Subcatchment   Pollutant        Buildup   
;;-------------- ---------------- ----------

[BUILDUP]
;;Land Use       Pollutant        Function   Coeff1     Coeff2     Coeff3     Per Unit  
;;-------------- ---------------- ---------- ---------- ---------- ---------- ----------
General          TSS              NONE       0.0        0.0        0.0        AREA      

[WASHOFF]
;;Land Use       Pollutant        Function   Coeff1     Coeff2     SweepRmvl  BmpRmvl   
;;-------------- ---------------- ---------- ---------- ---------- ---------- ----------
General          TSS              EMC        21.0       0.0        0.0        0.0       

[DWF]
;;Node           Constituent      Baseline   Patterns  
;;-------------- ---------------- ---------- ----------
97-50401         FLOW             0.500000       

[CURVES]
;;Name           Type       X-Value    Y-Value   
;;-------------- ---------- ---------- ----------
93-50408         STORAGE    0.000000   142130.000000
93-50408                    2.000000   163616.000000
93-50408                    4.000000   163248.000000
93-50408                    8.000000   203623.000000
93-50408                    10.000000  342466.000000
93-50408                    20.000000  342466.000000
;
DOYLE_1          STORAGE    0.000000   50800.000000
DOYLE_1                     2.000000   50800.000000
DOYLE_1                     4.000000   91000.000000
DOYLE_1                     5.000000   93300.000000
DOYLE_1                     6.000000   99300.000000
DOYLE_1                     9.000000   121000.000000
DOYLE_1                     20.000000  121000.000000
;
DOYLE_2          STORAGE    0.000000   57460.000000
DOYLE_2                     1.000000   72000.000000
DOYLE_2                     2.000000   175570.000000
DOYLE_2                     3.000000   205000.000000
DOYLE_2                     4.000000   229650.000000
DOYLE_2                     5.000000   245660.000000
DOYLE_2                     8.000000   286400.000000
DOYLE_2                     8.010000   348700.000000
DOYLE_2                     10.000000   369280.000000

[TIMESERIES]
;;Name           Date       Time       Value     
;;-------------- ---------- ---------- ----------
;10yr-12hr rainfall alternating block distribution
DESIGN_10YR12HR_ALT            36:00:00   0.000000  
DESIGN_10YR12HR_ALT            36:05:00   0.004000  
DESIGN_10YR12HR_ALT            36:10:00   0.004000  
DESIGN_10YR12HR_ALT            36:15:00   0.004000  
DESIGN_10YR12HR_ALT            36:20:00   0.004000  
DESIGN_10YR12HR_ALT            36:25:00   0.004000  
DESIGN_10YR12HR_ALT            36:30:00   0.004000  
DESIGN_10YR12HR_ALT            36:35:00   0.004000  
DESIGN_10YR12HR_ALT            36:40:00   0.004000  
DESIGN_10YR12HR_ALT            36:45:00   0.004000  
DESIGN_10YR12HR_ALT            36:50:00   0.004000  
DESIGN_10YR12HR_ALT            36:55:00   0.004000  
DESIGN_10YR12HR_ALT            37:00:00   0.004000  
DESIGN_10YR12HR_ALT            37:05:00   0.004000  
DESIGN_10YR12HR_ALT            37:10:00   0.004000  
DESIGN_10YR12HR_ALT            37:15:00   0.004000  
DESIGN_10YR12HR_ALT            37:20:00   0.004000  
DESIGN_10YR12HR_ALT            37:25:00   0.004000  
DESIGN_10YR12HR_ALT            37:30:00   0.004000  
DESIGN_10YR12HR_ALT            37:35:00   0.004000  
DESIGN_10YR12HR_ALT            37:40:00   0.004000  
DESIGN_10YR12HR_ALT            37:45:00   0.004000  
DESIGN_10YR12HR_ALT            37:50:00   0.004000  
DESIGN_10YR12HR_ALT            37:55:00   0.004000  
DESIGN_10YR12HR_ALT            38:00:00   0.004000  
DESIGN_10YR12HR_ALT            38:05:00   0.004000  
DESIGN_10YR12HR_ALT            38:10:00   0.004000  
DESIGN_10YR12HR_ALT            38:15:00   0.004000  
DESIGN_10YR12HR_ALT            38:20:00   0.004000  
DESIGN_10YR12HR_ALT            38:25:00   0.004000  
DESIGN_10YR12HR_ALT            38:30:00   0.004000  
DESIGN_10YR12HR_ALT            38:35:00   0.004000  
DESIGN_10YR12HR_ALT            38:40:00   0.004000  
DESIGN_10YR12HR_ALT            38:45:00   0.004000  
DESIGN_10YR12HR_ALT            38:50:00   0.004000  
DESIGN_10YR12HR_ALT            38:55:00   0.004000  
DESIGN_10YR12HR_ALT            39:00:00   0.004000  
DESIGN_10YR12HR_ALT            39:05:00   0.009000  
DESIGN_10YR12HR_ALT            39:10:00   0.009000  
DESIGN_10YR12HR_ALT            39:15:00   0.009000  
DESIGN_10YR12HR_ALT            39:20:00   0.009000  
DESIGN_10YR12HR_ALT            39:25:00   0.009000  
DESIGN_10YR12HR_ALT            39:30:00   0.009000  
DESIGN_10YR12HR_ALT            39:35:00   0.009000  
DESIGN_10YR12HR_ALT            39:40:00   0.009000  
DESIGN_10YR12HR_ALT            39:45:00   0.009000  
DESIGN_10YR12HR_ALT            39:50:00   0.009000  
DESIGN_10YR12HR_ALT            39:55:00   0.009000  
DESIGN_10YR12HR_ALT            40:00:00   0.009000  
DESIGN_10YR12HR_ALT            40:05:00   0.009000  
DESIGN_10YR12HR_ALT            40:10:00   0.009000  
DESIGN_10YR12HR_ALT            40:15:00   0.009000  
DESIGN_10YR12HR_ALT            40:20:00   0.009000  
DESIGN_10YR12HR_ALT            40:25:00   0.009000  
DESIGN_10YR12HR_ALT            40:30:00   0.009000  
DESIGN_10YR12HR_ALT            40:35:00   0.018000  
DESIGN_10YR12HR_ALT            40:40:00   0.018000  
DESIGN_10YR12HR_ALT            40:45:00   0.018000  
DESIGN_10YR12HR_ALT            40:50:00   0.018000  
DESIGN_10YR12HR_ALT            40:55:00   0.018000  
DESIGN_10YR12HR_ALT            41:00:00   0.018000  
DESIGN_10YR12HR_ALT            41:05:00   0.031000  
DESIGN_10YR12HR_ALT            41:10:00   0.031000  
DESIGN_10YR12HR_ALT            41:15:00   0.031000  
DESIGN_10YR12HR_ALT            41:20:00   0.031000  
DESIGN_10YR12HR_ALT            41:25:00   0.031000  
DESIGN_10YR12HR_ALT            41:30:00   0.031000  
DESIGN_10YR12HR_ALT            41:35:00   0.062000  
DESIGN_10YR12HR_ALT            41:40:00   0.062000  
DESIGN_10YR12HR_ALT            41:45:00   0.062000  
DESIGN_10YR12HR_ALT            41:50:00   0.114000  
DESIGN_10YR12HR_ALT            41:55:00   0.178000  
DESIGN_10YR12HR_ALT            42:00:00   0.554000  
DESIGN_10YR12HR_ALT            42:05:00   0.257000  
DESIGN_10YR12HR_ALT            42:10:00   0.114000  
DESIGN_10YR12HR_ALT            42:15:00   0.114000  
DESIGN_10YR12HR_ALT            42:20:00   0.062000  
DESIGN_10YR12HR_ALT            42:25:00   0.062000  
DESIGN_10YR12HR_ALT            42:30:00   0.062000  
DESIGN_10YR12HR_ALT            42:35:00   0.031000  
DESIGN_10YR12HR_ALT            42:40:00   0.031000  
DESIGN_10YR12HR_ALT            42:45:00   0.031000  
DESIGN_10YR12HR_ALT            42:50:00   0.031000  
DESIGN_10YR12HR_ALT            42:55:00   0.031000  
DESIGN_10YR12HR_ALT            43:00:00   0.031000  
DESIGN_10YR12HR_ALT            43:05:00   0.018000  
DESIGN_10YR12HR_ALT            43:10:00   0.018000  
DESIGN_10YR12HR_ALT            43:15:00   0.018000  
DESIGN_10YR12HR_ALT            43:20:00   0.018000  
DESIGN_10YR12HR_ALT            43:25:00   0.018000  
DESIGN_10YR12HR_ALT            43:30:00   0.018000  
DESIGN_10YR12HR_ALT            43:35:00   0.009000  
DESIGN_10YR12HR_ALT            43:40:00   0.009000  
DESIGN_10YR12HR_ALT            43:45:00   0.009000  
DESIGN_10YR12HR_ALT            43:50:00   0.009000  
DESIGN_10YR12HR_ALT            43:55:00   0.009000  
DESIGN_10YR12HR_ALT            44:00:00   0.009000  
DESIGN_10YR12HR_ALT            44:05:00   0.009000  
DESIGN_10YR12HR_ALT            44:10:00   0.009000  
DESIGN_10YR12HR_ALT            44:15:00   0.009000  
DESIGN_10YR12HR_ALT            44:20:00   0.009000  
DESIGN_10YR12HR_ALT            44:25:00   0.009000  
DESIGN_10YR12HR_ALT            44:30:00   0.009000  
DESIGN_10YR12HR_ALT            44:35:00   0.009000  
DESIGN_10YR12HR_ALT            44:40:00   0.009000  
DESIGN_10YR12HR_ALT            44:45:00   0.009000  
DESIGN_10YR12HR_ALT            44:50:00   0.009000  
DESIGN_10YR12HR_ALT            44:55:00   0.009000  
DESIGN_10YR12HR_ALT            45:00:00   0.009000  
DESIGN_10YR12HR_ALT            45:05:00   0.004000  
DESIGN_10YR12HR_ALT            45:10:00   0.004000  
DESIGN_10YR12HR_ALT            45:15:00   0.004000  
DESIGN_10YR12HR_ALT            45:20:00   0.004000  
DESIGN_10YR12HR_ALT            45:25:00   0.004000  
DESIGN_10YR12HR_ALT            45:30:00   0.004000  
DESIGN_10YR12HR_ALT            45:35:00   0.004000  
DESIGN_10YR12HR_ALT            45:40:00   0.004000  
DESIGN_10YR12HR_ALT            45:45:00   0.004000  
DESIGN_10YR12HR_ALT            45:50:00   0.004000  
DESIGN_10YR12HR_ALT            45:55:00   0.004000  
DESIGN_10YR12HR_ALT            46:00:00   0.004000  
DESIGN_10YR12HR_ALT            46:05:00   0.004000  